
 OpenBabel07222517193D

 35 37  0  0  0  0  0  0  0  0999 V2000
    1.1894    0.1731    0.0796 P   0  0  0  0  0  0  0  0  0  0  0  0
    0.6178   -0.7665    1.5352 C   0  0  0  0  0  0  0  0  0  0  0  0
    0.8050   -2.1619    1.5608 C   0  0  0  0  0  0  0  0  0  0  0  0
    0.3297   -2.9554    2.6118 C   0  0  0  0  0  0  0  0  0  0  0  0
   -0.3681   -2.3691    3.6598 C   0  0  0  0  0  0  0  0  0  0  0  0
   -0.5757   -0.9928    3.6600 C   0  0  0  0  0  0  0  0  0  0  0  0
   -0.0807   -0.1998    2.6130 C   0  0  0  0  0  0  0  0  0  0  0  0
    0.4314    1.8139    0.1513 C   0  0  0  0  0  0  0  0  0  0  0  0
   -0.9792    1.8706    0.0957 C   0  0  0  0  0  0  0  0  0  0  0  0
   -1.6792    3.0840    0.0930 C   0  0  0  0  0  0  0  0  0  0  0  0
   -0.9911    4.2849    0.1440 C   0  0  0  0  0  0  0  0  0  0  0  0
    0.3971    4.2674    0.1703 C   0  0  0  0  0  0  0  0  0  0  0  0
    1.0926    3.0475    0.1428 C   0  0  0  0  0  0  0  0  0  0  0  0
    2.9971    0.1025    0.1615 C   0  0  0  0  0  0  0  0  0  0  0  0
    3.8659    1.1282    0.5418 C   0  0  0  0  0  0  0  0  0  0  0  0
    5.2555    1.0163    0.3824 C   0  0  0  0  0  0  0  0  0  0  0  0
    5.8203   -0.1673   -0.0781 C   0  0  0  0  0  0  0  0  0  0  0  0
    4.9918   -1.2395   -0.3750 C   0  0  0  0  0  0  0  0  0  0  0  0
    3.6045   -1.0954   -0.2752 C   0  0  0  0  0  0  0  0  0  0  0  0
    1.3118   -2.6683    0.7444 H   0  0  0  0  0  0  0  0  0  0  0  0
    0.4957   -4.0296    2.5988 H   0  0  0  0  0  0  0  0  0  0  0  0
   -0.7536   -2.9825    4.4708 H   0  0  0  0  0  0  0  0  0  0  0  0
   -1.1363   -0.5323    4.4684 H   0  0  0  0  0  0  0  0  0  0  0  0
   -0.2702    0.8686    2.6577 H   0  0  0  0  0  0  0  0  0  0  0  0
   -1.5590    0.9498    0.0412 H   0  0  0  0  0  0  0  0  0  0  0  0
   -2.7652    3.0785    0.0327 H   0  0  0  0  0  0  0  0  0  0  0  0
   -1.5288    5.2287    0.1408 H   0  0  0  0  0  0  0  0  0  0  0  0
    0.9493    5.2037    0.1886 H   0  0  0  0  0  0  0  0  0  0  0  0
    2.1684    3.1239    0.0821 H   0  0  0  0  0  0  0  0  0  0  0  0
    3.5031    2.0501    0.9760 H   0  0  0  0  0  0  0  0  0  0  0  0
    5.8972    1.8623    0.6192 H   0  0  0  0  0  0  0  0  0  0  0  0
    6.8960   -0.2540   -0.1990 H   0  0  0  0  0  0  0  0  0  0  0  0
    5.4179   -2.1835   -0.7051 H   0  0  0  0  0  0  0  0  0  0  0  0
    2.9958   -1.9484   -0.5666 H   0  0  0  0  0  0  0  0  0  0  0  0
    0.3351   -1.0799   -2.0817 Cd  0  0  0  0  0  0  0  0  0  0  0  0
  1  2  1  0  0  0  0
  1  8  1  0  0  0  0
  1 14  1  0  0  0  0
  1 35  1  0  0  0  0
  2  3  1  0  0  0  0
  2  7  2  0  0  0  0
  3  4  2  0  0  0  0
  3 20  1  0  0  0  0
  4  5  1  0  0  0  0
  4 21  1  0  0  0  0
  5  6  2  0  0  0  0
  5 22  1  0  0  0  0
  6  7  1  0  0  0  0
  6 23  1  0  0  0  0
  7 24  1  0  0  0  0
  8  9  1  0  0  0  0
  8 13  2  0  0  0  0
  9 10  2  0  0  0  0
  9 25  1  0  0  0  0
 10 11  1  0  0  0  0
 10 26  1  0  0  0  0
 11 12  2  0  0  0  0
 11 27  1  0  0  0  0
 12 13  1  0  0  0  0
 12 28  1  0  0  0  0
 13 29  1  0  0  0  0
 14 15  1  0  0  0  0
 14 19  2  0  0  0  0
 15 16  2  0  0  0  0
 15 30  1  0  0  0  0
 16 17  1  0  0  0  0
 16 31  1  0  0  0  0
 17 18  2  0  0  0  0
 17 32  1  0  0  0  0
 18 19  1  0  0  0  0
 18 33  1  0  0  0  0
 19 34  1  0  0  0  0
M  END
