0Chemicalbook3437-95-4.MOL
  ChemDraw01162313062D

  6  6  0  0  0  0  0  0  0  0999 V2000
    0.2751    0.1498    0.0000 C   0  0  0  0  0  0  0  0  0  0  0  0
    0.0202   -0.6348    0.0000 C   0  0  0  0  0  0  0  0  0  0  0  0
   -0.8048   -0.6348    0.0000 C   0  0  0  0  0  0  0  0  0  0  0  0
   -1.0597    0.1498    0.0000 C   0  0  0  0  0  0  0  0  0  0  0  0
   -0.3923    0.6348    0.0000 S   0  0  0  0  0  0  0  0  0  0  0  0
    1.0597    0.4048    0.0000 I   0  0  0  0  0  0  0  0  0  0  0  0
  1  2  2  0      
  2  3  1  0      
  3  4  2  0      
  4  5  1  0      
  1  5  1  0      
  1  6  1  0      
M  END
